blazegraph/test/dss/WSU/Triplex_Lines.dss
! Triplex lines connecting the secondary of the service transformers (MV/LV) to 120/240V loada
! These lines are defined (see Triplex_linecodes.dss) as 2-phase lines
! See transformer connection for the meaning of nodes 1 and 2 at the secondary buses.

New Line.Tpx138236B0     Bus1=X2673305B.1.2  Bus2=SX2673305B.1.2   linecode=4/0Triplex  length=50 units=ft 
New Line.Tpx138237B0     Bus1=X3048196B.1.2  Bus2=SX3048196B.1.2   linecode=4/0Triplex  length=50 units=ft 
New Line.Tpx138258C0     Bus1=X2991911C.1.2  Bus2=SX2991911C.1.2   linecode=4/0Triplex  length=50 units=ft 
New Line.Tpx138259C0     Bus1=X2973158C.1.2  Bus2=SX2973158C.1.2   linecode=4/0Triplex  length=50 units=ft 
New Line.Tpx138260A0     Bus1=X3048208A.1.2  Bus2=SX3048208A.1.2   linecode=4/0Triplex  length=50 units=ft 
New Line.Tpx138262A0     Bus1=X3029502A.1.2  Bus2=SX3029502A.1.2   linecode=4/0Triplex  length=50 units=ft 
New Line.Tpx138264B0     Bus1=X3104125B.1.2  Bus2=SX3104125B.1.2   linecode=4/0Triplex  length=50 units=ft 
New Line.Tpx138265A0     Bus1=X3160107A.1.2  Bus2=SX3160107A.1.2   linecode=4/0Triplex  length=50 units=ft 
New Line.Tpx138294B0     Bus1=X2785516B.1.2  Bus2=SX2785516B.1.2   linecode=4/0Triplex  length=50 units=ft 
New Line.Tpx138313A0     Bus1=X3141400A.1.2  Bus2=SX3141400A.1.2   linecode=4/0Triplex  length=50 units=ft 
New Line.Tpx138342C0     Bus1=X2897775C.1.2  Bus2=SX2897775C.1.2   linecode=4/0Triplex  length=50 units=ft 
New Line.Tpx138343C0     Bus1=X3010565C.1.2  Bus2=SX3010565C.1.2   linecode=4/0Triplex  length=50 units=ft 
New Line.Tpx138346C0     Bus1=X2916609C.1.2  Bus2=SX2916609C.1.2   linecode=4/0Triplex  length=50 units=ft 
New Line.Tpx138371C0     Bus1=X2879073C.1.2  Bus2=SX2879073C.1.2   linecode=4/0Triplex  length=50 units=ft 
New Line.Tpx138372C0     Bus1=X3104126C.1.2  Bus2=SX3104126C.1.2   linecode=4/0Triplex  length=50 units=ft 
New Line.Tpx138373C0     Bus1=X3029503C.1.2  Bus2=SX3029503C.1.2   linecode=4/0Triplex  length=50 units=ft 
New Line.Tpx138374C0     Bus1=X2691950C.1.2  Bus2=SX2691950C.1.2   linecode=4/0Triplex  length=50 units=ft 
New Line.Tpx138379C0     Bus1=X2691951C.1.2  Bus2=SX2691951C.1.2   linecode=4/0Triplex  length=50 units=ft 
New Line.Tpx138380C0     Bus1=X2879076C.1.2  Bus2=SX2879076C.1.2   linecode=4/0Triplex  length=50 units=ft 
New Line.Tpx138404C0     Bus1=X2841630C.1.2  Bus2=SX2841630C.1.2   linecode=4/0Triplex  length=50 units=ft 
New Line.Tpx138405C0     Bus1=X2841629C.1.2  Bus2=SX2841629C.1.2   linecode=4/0Triplex  length=50 units=ft 
New Line.Tpx138412C0     Bus1=X2785523C.1.2  Bus2=SX2785523C.1.2   linecode=4/0Triplex  length=50 units=ft 
New Line.Tpx138413C0     Bus1=X3216347C.1.2  Bus2=SX3216347C.1.2   linecode=4/0Triplex  length=50 units=ft 
New Line.Tpx138416C0     Bus1=X3141388C.1.2  Bus2=SX3141388C.1.2   linecode=4/0Triplex  length=50 units=ft 
New Line.Tpx138464C0     Bus1=X3066801C.1.2  Bus2=SX3066801C.1.2   linecode=4/0Triplex  length=50 units=ft 
New Line.Tpx138465C0     Bus1=X2879055C.1.2  Bus2=SX2879055C.1.2   linecode=4/0Triplex  length=50 units=ft 
New Line.Tpx138466C0     Bus1=X2973144C.1.2  Bus2=SX2973144C.1.2   linecode=4/0Triplex  length=50 units=ft 
New Line.Tpx138469C0     Bus1=X2785518C.1.2  Bus2=SX2785518C.1.2   linecode=4/0Triplex  length=50 units=ft 
New Line.Tpx138470C0     Bus1=X2766717C.1.2  Bus2=SX2766717C.1.2   linecode=4/0Triplex  length=50 units=ft 
New Line.Tpx138472C0     Bus1=X2673309C.1.2  Bus2=SX2673309C.1.2   linecode=4/0Triplex  length=50 units=ft 
New Line.Tpx138560A0     Bus1=X3104113A.1.2  Bus2=SX3104113A.1.2   linecode=4/0Triplex  length=50 units=ft 
New Line.Tpx138561A0     Bus1=X3104121A.1.2  Bus2=SX3104121A.1.2   linecode=4/0Triplex  length=50 units=ft 
New Line.Tpx138562A0     Bus1=X2673310A.1.2  Bus2=SX2673310A.1.2   linecode=4/0Triplex  length=50 units=ft 
New Line.Tpx138563A0     Bus1=X2916627A.1.2  Bus2=SX2916627A.1.2   linecode=4/0Triplex  length=50 units=ft 
New Line.Tpx138564A0     Bus1=X2804283A.1.2  Bus2=SX2804283A.1.2   linecode=4/0Triplex  length=50 units=ft 
New Line.Tpx138565A0     Bus1=X3104122A.1.2  Bus2=SX3104122A.1.2   linecode=4/0Triplex  length=50 units=ft 
New Line.Tpx138566A0     Bus1=X2785519A.1.2  Bus2=SX2785519A.1.2   linecode=4/0Triplex  length=50 units=ft 
New Line.Tpx138567A0     Bus1=X2748129A.1.2  Bus2=SX2748129A.1.2   linecode=4/0Triplex  length=50 units=ft 
New Line.Tpx138569A0     Bus1=X2973151A.1.2  Bus2=SX2973151A.1.2   linecode=4/0Triplex  length=50 units=ft 
New Line.Tpx138570A0     Bus1=X2748146A.1.2  Bus2=SX2748146A.1.2   linecode=4/0Triplex  length=50 units=ft 
New Line.Tpx138571A0     Bus1=X2991913A.1.2  Bus2=SX2991913A.1.2   linecode=4/0Triplex  length=50 units=ft 
New Line.Tpx138573A0     Bus1=X3235253A.1.2  Bus2=SX3235253A.1.2   linecode=4/0Triplex  length=50 units=ft 
New Line.Tpx138574A0     Bus1=X2991907A.1.2  Bus2=SX2991907A.1.2   linecode=4/0Triplex  length=50 units=ft 
New Line.Tpx138581A0     Bus1=X2879064A.1.2  Bus2=SX2879064A.1.2   linecode=4/0Triplex  length=50 units=ft 
New Line.Tpx138585C0     Bus1=X3197637C.1.2  Bus2=SX3197637C.1.2   linecode=4/0Triplex  length=50 units=ft 
New Line.Tpx138586C0     Bus1=X2860487C.1.2  Bus2=SX2860487C.1.2   linecode=4/0Triplex  length=50 units=ft 
New Line.Tpx138641C0     Bus1=X2841638C.1.2  Bus2=SX2841638C.1.2   linecode=4/0Triplex  length=50 units=ft 
New Line.Tpx138642A0     Bus1=X3235256A.1.2  Bus2=SX3235256A.1.2   linecode=4/0Triplex  length=50 units=ft 
New Line.Tpx138644A0     Bus1=X3197630A.1.2  Bus2=SX3197630A.1.2   linecode=4/0Triplex  length=50 units=ft 
New Line.Tpx138645B0     Bus1=X3104120B.1.2  Bus2=SX3104120B.1.2   linecode=4/0Triplex  length=50 units=ft 
New Line.Tpx138646A0     Bus1=X2804251A.1.2  Bus2=SX2804251A.1.2   linecode=4/0Triplex  length=50 units=ft 
New Line.Tpx138647C0     Bus1=X3254210C.1.2  Bus2=SX3254210C.1.2   linecode=4/0Triplex  length=50 units=ft 
New Line.Tpx138649A0     Bus1=X3048206A.1.2  Bus2=SX3048206A.1.2   linecode=4/0Triplex  length=50 units=ft 
New Line.Tpx138650C0     Bus1=X2710510C.1.2  Bus2=SX2710510C.1.2   linecode=4/0Triplex  length=50 units=ft 
New Line.Tpx138651C0     Bus1=X3197628C.1.2  Bus2=SX3197628C.1.2   linecode=4/0Triplex  length=50 units=ft 
New Line.Tpx138652C0     Bus1=X2766718C.1.2  Bus2=SX2766718C.1.2   linecode=4/0Triplex  length=50 units=ft 
New Line.Tpx138655A0     Bus1=X3010556A.1.2  Bus2=SX3010556A.1.2   linecode=4/0Triplex  length=50 units=ft 
New Line.Tpx138679A0     Bus1=X2710520A.1.2  Bus2=SX2710520A.1.2   linecode=4/0Triplex  length=50 units=ft 
New Line.Tpx138680A0     Bus1=X2710521A.1.2  Bus2=SX2710521A.1.2   linecode=4/0Triplex  length=50 units=ft 
New Line.Tpx138684A0     Bus1=X3085396A.1.2  Bus2=SX3085396A.1.2   linecode=4/0Triplex  length=50 units=ft 
New Line.Tpx138685A0     Bus1=X3122813A.1.2  Bus2=SX3122813A.1.2   linecode=4/0Triplex  length=50 units=ft 
New Line.Tpx138716C0     Bus1=X3254219C.1.2  Bus2=SX3254219C.1.2   linecode=4/0Triplex  length=50 units=ft 
New Line.Tpx138717C0     Bus1=X3254220C.1.2  Bus2=SX3254220C.1.2   linecode=4/0Triplex  length=50 units=ft 
New Line.Tpx138718C0     Bus1=X3104134C.1.2  Bus2=SX3104134C.1.2   linecode=4/0Triplex  length=50 units=ft 
New Line.Tpx138719A0     Bus1=X2860490A.1.2  Bus2=SX2860490A.1.2   linecode=4/0Triplex  length=50 units=ft 
New Line.Tpx138720A0     Bus1=X3254218A.1.2  Bus2=SX3254218A.1.2   linecode=4/0Triplex  length=50 units=ft 
New Line.Tpx138751B0     Bus1=X3066818B.1.2  Bus2=SX3066818B.1.2   linecode=4/0Triplex  length=50 units=ft 
New Line.Tpx138752B0     Bus1=X2785528B.1.2  Bus2=SX2785528B.1.2   linecode=4/0Triplex  length=50 units=ft 
New Line.Tpx138753B0     Bus1=X2748130B.1.2  Bus2=SX2748130B.1.2   linecode=4/0Triplex  length=50 units=ft 
New Line.Tpx138754B0     Bus1=X3254212B.1.2  Bus2=SX3254212B.1.2   linecode=4/0Triplex  length=50 units=ft 
New Line.Tpx138755B0     Bus1=X2785520B.1.2  Bus2=SX2785520B.1.2   linecode=4/0Triplex  length=50 units=ft 
New Line.Tpx138769A0     Bus1=X2729411A.1.2  Bus2=SX2729411A.1.2   linecode=4/0Triplex  length=50 units=ft 
New Line.Tpx138770A0     Bus1=X2897781A.1.2  Bus2=SX2897781A.1.2   linecode=4/0Triplex  length=50 units=ft 
New Line.Tpx138771A0     Bus1=X3197644A.1.2  Bus2=SX3197644A.1.2   linecode=4/0Triplex  length=50 units=ft 
New Line.Tpx138776C0     Bus1=X3010566C.1.2  Bus2=SX3010566C.1.2   linecode=4/0Triplex  length=50 units=ft 
New Line.Tpx138796B0     Bus1=X3236011B.1.2  Bus2=SX3236011B.1.2   linecode=4/0Triplex  length=50 units=ft 
New Line.Tpx138797B0     Bus1=X3198358B.1.2  Bus2=SX3198358B.1.2   linecode=4/0Triplex  length=50 units=ft 
New Line.Tpx138798B0     Bus1=X3104859B.1.2  Bus2=SX3104859B.1.2   linecode=4/0Triplex  length=50 units=ft 
New Line.Tpx157715B0     Bus1=X2936275B.1.2  Bus2=SX2936275B.1.2   linecode=4/0Triplex  length=50 units=ft 
New Line.Tpx157716B0     Bus1=X3179674B.1.2  Bus2=SX3179674B.1.2   linecode=4/0Triplex  length=50 units=ft 
New Line.Tpx157717B0     Bus1=X2748840B.1.2  Bus2=SX2748840B.1.2   linecode=4/0Triplex  length=50 units=ft 
New Line.Tpx157718B0     Bus1=X3142099B.1.2  Bus2=SX3142099B.1.2   linecode=4/0Triplex  length=50 units=ft 
New Line.Tpx207286C0     Bus1=X3011298C.1.2  Bus2=SX3011298C.1.2   linecode=4/0Triplex  length=50 units=ft 
New Line.Tpx207287B0     Bus1=X2711234B.1.2  Bus2=SX2711234B.1.2   linecode=4/0Triplex  length=50 units=ft 
New Line.Tpx207288B0     Bus1=X3198355B.1.2  Bus2=SX3198355B.1.2   linecode=4/0Triplex  length=50 units=ft 
New Line.Tpx207290A0     Bus1=X2879773A.1.2  Bus2=SX2879773A.1.2   linecode=4/0Triplex  length=50 units=ft 
New Line.Tpx207291C0     Bus1=X2786274C.1.2  Bus2=SX2786274C.1.2   linecode=4/0Triplex  length=50 units=ft 
New Line.Tpx207292C0     Bus1=X3179682C.1.2  Bus2=SX3179682C.1.2   linecode=4/0Triplex  length=50 units=ft 
New Line.Tpx218472A0     Bus1=X2936270A.1.2  Bus2=SX2936270A.1.2   linecode=4/0Triplex  length=50 units=ft 
New Line.Tpx218473A0     Bus1=X3086078A.1.2  Bus2=SX3086078A.1.2   linecode=4/0Triplex  length=50 units=ft 
New Line.Tpx218474A0     Bus1=X3217056A.1.2  Bus2=SX3217056A.1.2   linecode=4/0Triplex  length=50 units=ft 
New Line.Tpx218475A0     Bus1=X3217057A.1.2  Bus2=SX3217057A.1.2   linecode=4/0Triplex  length=50 units=ft 
New Line.Tpx223655C0     Bus1=X2936268C.1.2  Bus2=SX2936268C.1.2   linecode=4/0Triplex  length=50 units=ft 
New Line.Tpx223658A0     Bus1=X2823592A.1.2  Bus2=SX2823592A.1.2   linecode=4/0Triplex  length=50 units=ft 
New Line.Tpx223660C0     Bus1=X3160863C.1.2  Bus2=SX3160863C.1.2   linecode=4/0Triplex  length=50 units=ft 
New Line.Tpx223661C0     Bus1=X2730108C.1.2  Bus2=SX2730108C.1.2   linecode=4/0Triplex  length=50 units=ft 
New Line.Tpx223662C0     Bus1=X2786204C.1.2  Bus2=SX2786204C.1.2   linecode=4/0Triplex  length=50 units=ft 
New Line.Tpx223663C0     Bus1=X2936216C.1.2  Bus2=SX2936216C.1.2   linecode=4/0Triplex  length=50 units=ft 
New Line.Tpx247036C0     Bus1=X3029498C.1.2  Bus2=SX3029498C.1.2   linecode=4/0Triplex  length=50 units=ft 
New Line.Tpx247056A0     Bus1=X2991912A.1.2  Bus2=SX2991912A.1.2   linecode=4/0Triplex  length=50 units=ft 
New Line.Tpx247057A0     Bus1=X3104128A.1.2  Bus2=SX3104128A.1.2   linecode=4/0Triplex  length=50 units=ft 
New Line.Tpx247058A0     Bus1=X2673315A.1.2  Bus2=SX2673315A.1.2   linecode=4/0Triplex  length=50 units=ft 
New Line.Tpx247059A0     Bus1=X2766721A.1.2  Bus2=SX2766721A.1.2   linecode=4/0Triplex  length=50 units=ft 
New Line.Tpx247060A0     Bus1=X2991906A.1.2  Bus2=SX2991906A.1.2   linecode=4/0Triplex  length=50 units=ft 
New Line.Tpx247061A0     Bus1=X2879054A.1.2  Bus2=SX2879054A.1.2   linecode=4/0Triplex  length=50 units=ft 
New Line.Tpx247084B0     Bus1=X3254211B.1.2  Bus2=SX3254211B.1.2   linecode=4/0Triplex  length=50 units=ft 
New Line.Tpx247100B0     Bus1=X2729407B.1.2  Bus2=SX2729407B.1.2   linecode=4/0Triplex  length=50 units=ft 
New Line.Tpx247105B0     Bus1=X2691942B.1.2  Bus2=SX2691942B.1.2   linecode=4/0Triplex  length=50 units=ft 
New Line.Tpx247122B0     Bus1=X3197629B.1.2  Bus2=SX3197629B.1.2   linecode=4/0Triplex  length=50 units=ft 
New Line.Tpx247126B0     Bus1=X2879065B.1.2  Bus2=SX2879065B.1.2   linecode=4/0Triplex  length=50 units=ft 
New Line.Tpx247160B0     bus1=X0247160B.1.2  Bus2=SX0247160B.1.2   linecode=4/0Triplex  length=50 units=ft 
New Line.Tpx247162B0     bus1=X0247162B.1.2  Bus2=SX0247162B.1.2   linecode=4/0Triplex  length=50 units=ft 
New Line.Tpx247164B0     Bus1=X2766732B.1.2  Bus2=SX2766732B.1.2   linecode=4/0Triplex  length=50 units=ft 
New Line.Tpx247170B0     Bus1=X2897784B.1.2  Bus2=SX2897784B.1.2   linecode=4/0Triplex  length=50 units=ft 
New Line.Tpx247171B0     bus1=X0247171B.1.2  Bus2=SX0247171B.1.2   linecode=4/0Triplex  length=50 units=ft 
New Line.Tpx247184C0     Bus1=X2936279C.1.2  Bus2=SX2936279C.1.2   linecode=4/0Triplex  length=50 units=ft 
New Line.Tpx247185B0     Bus1=X3179678B.1.2  Bus2=SX3179678B.1.2   linecode=4/0Triplex  length=50 units=ft 
New Line.Tpx251828B0     Bus1=X3179650B.1.2  Bus2=SX3179650B.1.2   linecode=4/0Triplex  length=50 units=ft 
New Line.Tpx251855C0     Bus1=X2730107C.1.2  Bus2=SX2730107C.1.2   linecode=4/0Triplex  length=50 units=ft 
New Line.Tpx251856C0     Bus1=X3048888C.1.2  Bus2=SX3048888C.1.2   linecode=4/0Triplex  length=50 units=ft 
New Line.Tpx251857C0     Bus1=X3064514C.1.2  Bus2=SX3064514C.1.2   linecode=4/0Triplex  length=50 units=ft 
New Line.Tpx251858C0     Bus1=X2861158C.1.2  Bus2=SX2861158C.1.2   linecode=4/0Triplex  length=50 units=ft 
New Line.Tpx251859C0     Bus1=X2952007C.1.2  Bus2=SX2952007C.1.2   linecode=4/0Triplex  length=50 units=ft 
New Line.Tpx251862C0     Bus1=X3254873C.1.2  Bus2=SX3254873C.1.2   linecode=4/0Triplex  length=50 units=ft 
New Line.Tpx251863C0     Bus1=X2745811C.1.2  Bus2=SX2745811C.1.2   linecode=4/0Triplex  length=50 units=ft 
New Line.Tpx251865C0     Bus1=X3142050C.1.2  Bus2=SX3142050C.1.2   linecode=4/0Triplex  length=50 units=ft 
New Line.Tpx251867C0     Bus1=X2861157C.1.2  Bus2=SX2861157C.1.2   linecode=4/0Triplex  length=50 units=ft 
New Line.Tpx260457B0     Bus1=X3086079B.1.2  Bus2=SX3086079B.1.2   linecode=4/0Triplex  length=50 units=ft 
New Line.Tpx260458B0     Bus1=X2936276B.1.2  Bus2=SX2936276B.1.2   linecode=4/0Triplex  length=50 units=ft 
New Line.Tpx260461B0     Bus1=X2861223B.1.2  Bus2=SX2861223B.1.2   linecode=4/0Triplex  length=50 units=ft 
New Line.Tpx260463B0     Bus1=X3086075B.1.2  Bus2=SX3086075B.1.2   linecode=4/0Triplex  length=50 units=ft 
New Line.Tpx260464A0     Bus1=X2730187A.1.2  Bus2=SX2730187A.1.2   linecode=4/0Triplex  length=50 units=ft 
New Line.Tpx260467A0     Bus1=X3104856A.1.2  Bus2=SX3104856A.1.2   linecode=4/0Triplex  length=50 units=ft 
New Line.Tpx260473A0     Bus1=X2861222A.1.2  Bus2=SX2861222A.1.2   linecode=4/0Triplex  length=50 units=ft 
New Line.Tpx260474A0     Bus1=X2917330A.1.2  Bus2=SX2917330A.1.2   linecode=4/0Triplex  length=50 units=ft 
New Line.Tpx260475A0     Bus1=X2879794A.1.2  Bus2=SX2879794A.1.2   linecode=4/0Triplex  length=50 units=ft 
New Line.Tpx260476A0     Bus1=X2936271A.1.2  Bus2=SX2936271A.1.2   linecode=4/0Triplex  length=50 units=ft 
New Line.Tpx260479A0     Bus1=X2955074A.1.2  Bus2=SX2955074A.1.2   linecode=4/0Triplex  length=50 units=ft 
New Line.Tpx260480C0     Bus1=X3030199C.1.2  Bus2=SX3030199C.1.2   linecode=4/0Triplex  length=50 units=ft 
New Line.Tpx260481C0     Bus1=X2730163C.1.2  Bus2=SX2730163C.1.2   linecode=4/0Triplex  length=50 units=ft 
New Line.Tpx260484A0     Bus1=X2992624A.1.2  Bus2=SX2992624A.1.2   linecode=4/0Triplex  length=50 units=ft 
New Line.Tpx260487A0     Bus1=X2692654A.1.2  Bus2=SX2692654A.1.2   linecode=4/0Triplex  length=50 units=ft 
New Line.Tpx260488A0     Bus1=X2842379A.1.2  Bus2=SX2842379A.1.2   linecode=4/0Triplex  length=50 units=ft 
New Line.Tpx260491C0     Bus1=X2805031C.1.2  Bus2=SX2805031C.1.2   linecode=4/0Triplex  length=50 units=ft 
New Line.Tpx260494B0     Bus1=X3068944B.1.2  Bus2=SX3068944B.1.2   linecode=4/0Triplex  length=50 units=ft 
New Line.Tpx260495B0     Bus1=X2767407B.1.2  Bus2=SX2767407B.1.2   linecode=4/0Triplex  length=50 units=ft 
New Line.Tpx260496B0     Bus1=X2879767B.1.2  Bus2=SX2879767B.1.2   linecode=4/0Triplex  length=50 units=ft 
New Line.Tpx260500B0     Bus1=X2711224B.1.2  Bus2=SX2711224B.1.2   linecode=4/0Triplex  length=50 units=ft 
New Line.Tpx260501B0     Bus1=X3142098B.1.2  Bus2=SX3142098B.1.2   linecode=4/0Triplex  length=50 units=ft 
New Line.Tpx260502B0     Bus1=X2748839B.1.2  Bus2=SX2748839B.1.2   linecode=4/0Triplex  length=50 units=ft 
New Line.Tpx260503B0     Bus1=X2917310B.1.2  Bus2=SX2917310B.1.2   linecode=4/0Triplex  length=50 units=ft 
New Line.Tpx260505C0     Bus1=X2861218C.1.2  Bus2=SX2861218C.1.2   linecode=4/0Triplex  length=50 units=ft 
New Line.Tpx260508A0     Bus1=X2955081A.1.2  Bus2=SX2955081A.1.2   linecode=4/0Triplex  length=50 units=ft 
New Line.Tpx260511C0     Bus1=X3160878C.1.2  Bus2=SX3160878C.1.2   linecode=4/0Triplex  length=50 units=ft 
New Line.Tpx260513C0     Bus1=X2917336C.1.2  Bus2=SX2917336C.1.2   linecode=4/0Triplex  length=50 units=ft 
New Line.Tpx260514C0     Bus1=X2674047C.1.2  Bus2=SX2674047C.1.2   linecode=4/0Triplex  length=50 units=ft 
New Line.Tpx260515A0     Bus1=X3160865A.1.2  Bus2=SX3160865A.1.2   linecode=4/0Triplex  length=50 units=ft 
New Line.Tpx260517C0     Bus1=X2767408C.1.2  Bus2=SX2767408C.1.2   linecode=4/0Triplex  length=50 units=ft 
New Line.Tpx260518C0     Bus1=X3104853C.1.2  Bus2=SX3104853C.1.2   linecode=4/0Triplex  length=50 units=ft 
New Line.Tpx260520B0     Bus1=X3254915B.1.2  Bus2=SX3254915B.1.2   linecode=4/0Triplex  length=50 units=ft 
New Line.Tpx260521B0     Bus1=X3048963B.1.2  Bus2=SX3048963B.1.2   linecode=4/0Triplex  length=50 units=ft 
New Line.Tpx260527B0     Bus1=X2711226B.1.2  Bus2=SX2711226B.1.2   linecode=4/0Triplex  length=50 units=ft 
New Line.Tpx260528C0     Bus1=X3217052C.1.2  Bus2=SX3217052C.1.2   linecode=4/0Triplex  length=50 units=ft 
New Line.Tpx260529C0     Bus1=X3217053C.1.2  Bus2=SX3217053C.1.2   linecode=4/0Triplex  length=50 units=ft 
New Line.Tpx260532C0     Bus1=X3086074C.1.2  Bus2=SX3086074C.1.2   linecode=4/0Triplex  length=50 units=ft 
New Line.Tpx260535C0     Bus1=X3067507C.1.2  Bus2=SX3067507C.1.2   linecode=4/0Triplex  length=50 units=ft 
New Line.Tpx260542A0     Bus1=X2955078A.1.2  Bus2=SX2955078A.1.2   linecode=4/0Triplex  length=50 units=ft 
New Line.Tpx260543C0     Bus1=X2955077C.1.2  Bus2=SX2955077C.1.2   linecode=4/0Triplex  length=50 units=ft 
New Line.Tpx260551C0     Bus1=X3160872C.1.2  Bus2=SX3160872C.1.2   linecode=4/0Triplex  length=50 units=ft 
New Line.Tpx260552A0     Bus1=X3198348A.1.2  Bus2=SX3198348A.1.2   linecode=4/0Triplex  length=50 units=ft 
New Line.Tpx260553C0     Bus1=X2711225C.1.2  Bus2=SX2711225C.1.2   linecode=4/0Triplex  length=50 units=ft 
New Line.Tpx260554C0     Bus1=X3030200C.1.2  Bus2=SX3030200C.1.2   linecode=4/0Triplex  length=50 units=ft 
New Line.Tpx260555A0     Bus1=X3048962A.1.2  Bus2=SX3048962A.1.2   linecode=4/0Triplex  length=50 units=ft 
New Line.Tpx260558C0     Bus1=X3160861C.1.2  Bus2=SX3160861C.1.2   linecode=4/0Triplex  length=50 units=ft 
New Line.Tpx260561C0     Bus1=X3104850C.1.2  Bus2=SX3104850C.1.2   linecode=4/0Triplex  length=50 units=ft 
New Line.Tpx260562A0     Bus1=X3251799A.1.2  Bus2=SX3251799A.1.2   linecode=4/0Triplex  length=50 units=ft 
New Line.Tpx260567C0     Bus1=X2936211C.1.2  Bus2=SX2936211C.1.2   linecode=4/0Triplex  length=50 units=ft 
New Line.Tpx260568C0     Bus1=X2842329C.1.2  Bus2=SX2842329C.1.2   linecode=4/0Triplex  length=50 units=ft 
New Line.Tpx260569C0     Bus1=X3104796C.1.2  Bus2=SX3104796C.1.2   linecode=4/0Triplex  length=50 units=ft 
New Line.Tpx260572C0     Bus1=X3236004C.1.2  Bus2=SX3236004C.1.2   linecode=4/0Triplex  length=50 units=ft 
New Line.Tpx260573C0     Bus1=X3160896C.1.2  Bus2=SX3160896C.1.2   linecode=4/0Triplex  length=50 units=ft 
New Line.Tpx260574C0     Bus1=X3123452C.1.2  Bus2=SX3123452C.1.2   linecode=4/0Triplex  length=50 units=ft 
New Line.Tpx260575B0     Bus1=X3254869B.1.2  Bus2=SX3254869B.1.2   linecode=4/0Triplex  length=50 units=ft 
New Line.Tpx260576C0     Bus1=X3030126C.1.2  Bus2=SX3030126C.1.2   linecode=4/0Triplex  length=50 units=ft 
New Line.Tpx260577C0     Bus1=X2767341C.1.2  Bus2=SX2767341C.1.2   linecode=4/0Triplex  length=50 units=ft 
New Line.Tpx260581C0     Bus1=X3254870C.1.2  Bus2=SX3254870C.1.2   linecode=4/0Triplex  length=50 units=ft 
New Line.Tpx260586B0     Bus1=X3048887B.1.2  Bus2=SX3048887B.1.2   linecode=4/0Triplex  length=50 units=ft 
New Line.Tpx260589B0     Bus1=X2955005B.1.2  Bus2=SX2955005B.1.2   linecode=4/0Triplex  length=50 units=ft 
New Line.Tpx260590B0     Bus1=X3216988B.1.2  Bus2=SX3216988B.1.2   linecode=4/0Triplex  length=50 units=ft 
New Line.Tpx260591B0     Bus1=X3179607B.1.2  Bus2=SX3179607B.1.2   linecode=4/0Triplex  length=50 units=ft 
New Line.Tpx260594A0     Bus1=X2898457A.1.2  Bus2=SX2898457A.1.2   linecode=4/0Triplex  length=50 units=ft 
New Line.Tpx260595A0     Bus1=X2767340A.1.2  Bus2=SX2767340A.1.2   linecode=4/0Triplex  length=50 units=ft 
New Line.Tpx260595B0     Bus1=X2767340B.1.2  Bus2=SX2767340B.1.2   linecode=4/0Triplex  length=50 units=ft 
New Line.Tpx260595C0     Bus1=X2767340C.1.2  Bus2=SX2767340C.1.2   linecode=4/0Triplex  length=50 units=ft 
New Line.Tpx260598A0     Bus1=X3067478A.1.2  Bus2=SX3067478A.1.2   linecode=4/0Triplex  length=50 units=ft 
New Line.Tpx260601C0     Bus1=X2730149C.1.2  Bus2=SX2730149C.1.2   linecode=4/0Triplex  length=50 units=ft 
New Line.Tpx260602B0     Bus1=X2989566B.1.2  Bus2=SX2989566B.1.2   linecode=4/0Triplex  length=50 units=ft 
New Line.Tpx260605A0     Bus1=X2973791A.1.2  Bus2=SX2973791A.1.2   linecode=4/0Triplex  length=50 units=ft 
New Line.Tpx260607B0     Bus1=X3029055B.1.2  Bus2=SX3029055B.1.2   linecode=4/0Triplex  length=50 units=ft 
New Line.Tpx260620C0     Bus1=X3067506C.1.2  Bus2=SX3067506C.1.2   linecode=4/0Triplex  length=50 units=ft 
...

!Triplex Lines for S2 New Neighborhood
New Line.Tpx2000402A0     Bus1=X2000402A.1.2  Bus2=SX2000402A.1.2   linecode=4/0Triplex  length=50 units=ft
New Line.Tpx2000403A0     Bus1=X2000403A.1.2  Bus2=SX2000403A.1.2   linecode=4/0Triplex  length=50 units=ft
New Line.Tpx2000404A0     Bus1=X2000404A.1.2  Bus2=SX2000404A.1.2   linecode=4/0Triplex  length=50 units=ft
New Line.Tpx2000405A0     Bus1=X2000405A.1.2  Bus2=SX2000405A.1.2   linecode=4/0Triplex  length=50 units=ft
New Line.Tpx2000406A0     Bus1=X2000406A.1.2  Bus2=SX2000406A.1.2   linecode=4/0Triplex  length=50 units=ft
New Line.Tpx2000407A0     Bus1=X2000407A.1.2  Bus2=SX2000407A.1.2   linecode=4/0Triplex  length=50 units=ft
New Line.Tpx2000408A0     Bus1=X2000408A.1.2  Bus2=SX2000408A.1.2   linecode=4/0Triplex  length=50 units=ft
New Line.Tpx2000409A0     Bus1=X2000409A.1.2  Bus2=SX2000409A.1.2   linecode=4/0Triplex  length=50 units=ft
New Line.Tpx2000410A0     Bus1=X2000410A.1.2  Bus2=SX2000410A.1.2   linecode=4/0Triplex  length=50 units=ft
New Line.Tpx2000411A0     Bus1=X2000411A.1.2  Bus2=SX2000411A.1.2   linecode=4/0Triplex  length=50 units=ft
New Line.Tpx2000412A0     Bus1=X2000412A.1.2  Bus2=SX2000412A.1.2   linecode=4/0Triplex  length=50 units=ft
New Line.Tpx2000413A0     Bus1=X2000413A.1.2  Bus2=SX2000413A.1.2   linecode=4/0Triplex  length=50 units=ft
New Line.Tpx2000414A0     Bus1=X2000414A.1.2  Bus2=SX2000414A.1.2   linecode=4/0Triplex  length=50 units=ft
New Line.Tpx2000415A0     Bus1=X2000415A.1.2  Bus2=SX2000415A.1.2   linecode=4/0Triplex  length=50 units=ft

New Line.Tpx2000702B0     Bus1=X2000702B.1.2  Bus2=SX2000702B.1.2   linecode=4/0Triplex  length=50 units=ft
New Line.Tpx2000703B0     Bus1=X2000703B.1.2  Bus2=SX2000703B.1.2   linecode=4/0Triplex  length=50 units=ft
New Line.Tpx2000704B0     Bus1=X2000704B.1.2  Bus2=SX2000704B.1.2   linecode=4/0Triplex  length=50 units=ft
New Line.Tpx2000705B0     Bus1=X2000705B.1.2  Bus2=SX2000705B.1.2   linecode=4/0Triplex  length=50 units=ft
New Line.Tpx2000706B0     Bus1=X2000706B.1.2  Bus2=SX2000706B.1.2   linecode=4/0Triplex  length=50 units=ft
New Line.Tpx2000707B0     Bus1=X2000707B.1.2  Bus2=SX2000707B.1.2   linecode=4/0Triplex  length=50 units=ft
New Line.Tpx2000708B0     Bus1=X2000708B.1.2  Bus2=SX2000708B.1.2   linecode=4/0Triplex  length=50 units=ft
New Line.Tpx2000709B0     Bus1=X2000709B.1.2  Bus2=SX2000709B.1.2   linecode=4/0Triplex  length=50 units=ft
New Line.Tpx2000710B0     Bus1=X2000710B.1.2  Bus2=SX2000710B.1.2   linecode=4/0Triplex  length=50 units=ft
New Line.Tpx2000711B0     Bus1=X2000711B.1.2  Bus2=SX2000711B.1.2   linecode=4/0Triplex  length=50 units=ft
New Line.Tpx2000712B0     Bus1=X2000712B.1.2  Bus2=SX2000712B.1.2   linecode=4/0Triplex  length=50 units=ft
New Line.Tpx2000713B0     Bus1=X2000713B.1.2  Bus2=SX2000713B.1.2   linecode=4/0Triplex  length=50 units=ft
New Line.Tpx2000714B0     Bus1=X2000714B.1.2  Bus2=SX2000714B.1.2   linecode=4/0Triplex  length=50 units=ft
New Line.Tpx2000715B0     Bus1=X2000715B.1.2  Bus2=SX2000715B.1.2   linecode=4/0Triplex  length=50 units=ft

New Line.Tpx2000902C0     Bus1=X2000902C.1.2  Bus2=SX2000902C.1.2   linecode=4/0Triplex  length=50 units=ft
New Line.Tpx2000903C0     Bus1=X2000903C.1.2  Bus2=SX2000903C.1.2   linecode=4/0Triplex  length=50 units=ft
New Line.Tpx2000904C0     Bus1=X2000904C.1.2  Bus2=SX2000904C.1.2   linecode=4/0Triplex  length=50 units=ft
New Line.Tpx2000905C0     Bus1=X2000905C.1.2  Bus2=SX2000905C.1.2   linecode=4/0Triplex  length=50 units=ft
New Line.Tpx2000906C0     Bus1=X2000906C.1.2  Bus2=SX2000906C.1.2   linecode=4/0Triplex  length=50 units=ft
New Line.Tpx2000907C0     Bus1=X2000907C.1.2  Bus2=SX2000907C.1.2   linecode=4/0Triplex  length=50 units=ft
New Line.Tpx2000908C0     Bus1=X2000908C.1.2  Bus2=SX2000908C.1.2   linecode=4/0Triplex  length=50 units=ft
New Line.Tpx2000909C0     Bus1=X2000909C.1.2  Bus2=SX2000909C.1.2   linecode=4/0Triplex  length=50 units=ft
New Line.Tpx2000910C0     Bus1=X2000910C.1.2  Bus2=SX2000910C.1.2   linecode=4/0Triplex  length=50 units=ft
New Line.Tpx2000911C0     Bus1=X2000911C.1.2  Bus2=SX2000911C.1.2   linecode=4/0Triplex  length=50 units=ft
New Line.Tpx2000912C0     Bus1=X2000912C.1.2  Bus2=SX2000912C.1.2   linecode=4/0Triplex  length=50 units=ft
New Line.Tpx2000913C0     Bus1=X2000913C.1.2  Bus2=SX2000913C.1.2   linecode=4/0Triplex  length=50 units=ft
New Line.Tpx2000914C0     Bus1=X2000914C.1.2  Bus2=SX2000914C.1.2   linecode=4/0Triplex  length=50 units=ft
New Line.Tpx2000915C0     Bus1=X2000915C.1.2  Bus2=SX2000915C.1.2   linecode=4/0Triplex  length=50 units=ft

New Line.Tpx2001002B0     Bus1=X2001002B.1.2  Bus2=SX2001002B.1.2   linecode=4/0Triplex  length=50 units=ft
New Line.Tpx2001003B0     Bus1=X2001003B.1.2  Bus2=SX2001003B.1.2   linecode=4/0Triplex  length=50 units=ft
New Line.Tpx2001004B0     Bus1=X2001004B.1.2  Bus2=SX2001004B.1.2   linecode=4/0Triplex  length=50 units=ft
New Line.Tpx2001005B0     Bus1=X2001005B.1.2  Bus2=SX2001005B.1.2   linecode=4/0Triplex  length=50 units=ft
New Line.Tpx2001006B0     Bus1=X2001006B.1.2  Bus2=SX2001006B.1.2   linecode=4/0Triplex  length=50 units=ft
New Line.Tpx2001007B0     Bus1=X2001007B.1.2  Bus2=SX2001007B.1.2   linecode=4/0Triplex  length=50 units=ft
New Line.Tpx2001008B0     Bus1=X2001008B.1.2  Bus2=SX2001008B.1.2   linecode=4/0Triplex  length=50 units=ft
New Line.Tpx2001009B0     Bus1=X2001009B.1.2  Bus2=SX2001009B.1.2   linecode=4/0Triplex  length=50 units=ft
New Line.Tpx2001010B0     Bus1=X2001010B.1.2  Bus2=SX2001010B.1.2   linecode=4/0Triplex  length=50 units=ft
New Line.Tpx2001011B0     Bus1=X2001011B.1.2  Bus2=SX2001011B.1.2   linecode=4/0Triplex  length=50 units=ft
New Line.Tpx2001012B0     Bus1=X2001012B.1.2  Bus2=SX2001012B.1.2   linecode=4/0Triplex  length=50 units=ft
New Line.Tpx2001013B0     Bus1=X2001013B.1.2  Bus2=SX2001013B.1.2   linecode=4/0Triplex  length=50 units=ft
New Line.Tpx2001014B0     Bus1=X2001014B.1.2  Bus2=SX2001014B.1.2   linecode=4/0Triplex  length=50 units=ft
New Line.Tpx2001015B0     Bus1=X2001015B.1.2  Bus2=SX2001015B.1.2   linecode=4/0Triplex  length=50 units=ft

New Line.Tpx2001202C0     Bus1=X2001202C.1.2  Bus2=SX2001202C.1.2   linecode=4/0Triplex  length=50 units=ft
New Line.Tpx2001203C0     Bus1=X2001203C.1.2  Bus2=SX2001203C.1.2   linecode=4/0Triplex  length=50 units=ft
New Line.Tpx2001204C0     Bus1=X2001204C.1.2  Bus2=SX2001204C.1.2   linecode=4/0Triplex  length=50 units=ft
New Line.Tpx2001205C0     Bus1=X2001205C.1.2  Bus2=SX2001205C.1.2   linecode=4/0Triplex  length=50 units=ft
New Line.Tpx2001206C0     Bus1=X2001206C.1.2  Bus2=SX2001206C.1.2   linecode=4/0Triplex  length=50 units=ft
New Line.Tpx2001207C0     Bus1=X2001207C.1.2  Bus2=SX2001207C.1.2   linecode=4/0Triplex  length=50 units=ft
New Line.Tpx2001208C0     Bus1=X2001208C.1.2  Bus2=SX2001208C.1.2   linecode=4/0Triplex  length=50 units=ft
New Line.Tpx2001209C0     Bus1=X2001209C.1.2  Bus2=SX2001209C.1.2   linecode=4/0Triplex  length=50 units=ft
New Line.Tpx2001210C0     Bus1=X2001210C.1.2  Bus2=SX2001210C.1.2   linecode=4/0Triplex  length=50 units=ft
New Line.Tpx2001211C0     Bus1=X2001211C.1.2  Bus2=SX2001211C.1.2   linecode=4/0Triplex  length=50 units=ft
New Line.Tpx2001212C0     Bus1=X2001212C.1.2  Bus2=SX2001212C.1.2   linecode=4/0Triplex  length=50 units=ft
New Line.Tpx2001213C0     Bus1=X2001213C.1.2  Bus2=SX2001213C.1.2   linecode=4/0Triplex  length=50 units=ft
New Line.Tpx2001214C0     Bus1=X2001214C.1.2  Bus2=SX2001214C.1.2   linecode=4/0Triplex  length=50 units=ft
New Line.Tpx2001215C0     Bus1=X2001215C.1.2  Bus2=SX2001215C.1.2   linecode=4/0Triplex  length=50 units=ft

New Line.Tpx2001302A0     Bus1=X2001302A.1.2  Bus2=SX2001302A.1.2   linecode=4/0Triplex  length=50 units=ft
New Line.Tpx2001303A0     Bus1=X2001303A.1.2  Bus2=SX2001303A.1.2   linecode=4/0Triplex  length=50 units=ft
New Line.Tpx2001304A0     Bus1=X2001304A.1.2  Bus2=SX2001304A.1.2   linecode=4/0Triplex  length=50 units=ft
New Line.Tpx2001305A0     Bus1=X2001305A.1.2  Bus2=SX2001305A.1.2   linecode=4/0Triplex  length=50 units=ft
New Line.Tpx2001306A0     Bus1=X2001306A.1.2  Bus2=SX2001306A.1.2   linecode=4/0Triplex  length=50 units=ft
New Line.Tpx2001307A0     Bus1=X2001307A.1.2  Bus2=SX2001307A.1.2   linecode=4/0Triplex  length=50 units=ft
New Line.Tpx2001308A0     Bus1=X2001308A.1.2  Bus2=SX2001308A.1.2   linecode=4/0Triplex  length=50 units=ft
New Line.Tpx2001309A0     Bus1=X2001309A.1.2  Bus2=SX2001309A.1.2   linecode=4/0Triplex  length=50 units=ft
New Line.Tpx2001310A0     Bus1=X2001310A.1.2  Bus2=SX2001310A.1.2   linecode=4/0Triplex  length=50 units=ft
New Line.Tpx2001311A0     Bus1=X2001311A.1.2  Bus2=SX2001311A.1.2   linecode=4/0Triplex  length=50 units=ft
New Line.Tpx2001312A0     Bus1=X2001312A.1.2  Bus2=SX2001312A.1.2   linecode=4/0Triplex  length=50 units=ft
New Line.Tpx2001313A0     Bus1=X2001313A.1.2  Bus2=SX2001313A.1.2   linecode=4/0Triplex  length=50 units=ft
New Line.Tpx2001314A0     Bus1=X2001314A.1.2  Bus2=SX2001314A.1.2   linecode=4/0Triplex  length=50 units=ft
New Line.Tpx2001315A0     Bus1=X2001315A.1.2  Bus2=SX2001315A.1.2   linecode=4/0Triplex  length=50 units=ft

New Line.Tpx2001400C0     Bus1=X2001400C.1.2  Bus2=SX2001400C.1.2   linecode=4/0Triplex  length=50 units=ft
